/*--------------------------------*- C++ -*----------------------------------*\
| =========                 |                                                 |
| \\      /  F ield         | OpenFOAM: The Open Source CFD Toolbox           |
|  \\    /   O peration     | Version:  2.2.1                                 |
|   \\  /    A nd           | Web:      www.OpenFOAM.org                      |
|    \\/     M anipulation  |                                                 |
\*---------------------------------------------------------------------------*/
FoamFile
{
    version     2.0;
    format      ascii;
    class       dictionary;
    object      fvSchemes;
}
// * * * * * * * * * * * * * * * * * * * * * * * * * * * * * * * * * * * * * //

ddtSchemes
{
    default        steadyState; 
}

gradSchemes
{
    default         Gauss linear;
    grad(U)         cellLimited Gauss linear 1;
}

divSchemes
{
    default         none;

    div(phi,U)      bounded Gauss linear; // linearUpwindV grad(U);
    div(phi,k)      bounded Gauss upwind; //bounded Gauss upwind;
    div(phi,omega)  bounded Gauss upwind; // bounded Gauss upwind;
    div((nuEff*dev(T(grad(U))))) Gauss linear;
}

laplacianSchemes
{
    default         		Gauss linear corrected; // none;	    
//    laplacian(nuEff,U) 		Gauss linear limited corrected 0.33;
//    laplacian((1|A(U)),p) 	Gauss linear limited corrected 0.33;
//    laplacian(DkEff,k) 		Gauss linear limited corrected 0.33;
//    laplacian(DomegaEff,omega) 	Gauss linear limited corrected 0.33;
//    laplacian(DREff,R) 	Gauss linear limited corrected 0.33;
//    laplacian(DnuTildaEff,nuTilda) Gauss linear limited corrected 0.33;
//    potentialFoam
//    laplacian(1,p)  		Gauss linear limited corrected 0.33;

}

interpolationSchemes
{
    default         linear;
}

snGradSchemes
{
    default         corrected; // limited corrected 0.33;
}

fluxRequired
{
    default         no;
    p;
}

// ************************************************************************* //
