/*--------------------------------*- C++ -*----------------------------------*\
| =========                 |                                                 |
| \\      /  F ield         | OpenFOAM: The Open Source CFD Toolbox           |
|  \\    /   O peration     | Version:  5                                     |
|   \\  /    A nd           | Web:      www.OpenFOAM.org                      |
|    \\/     M anipulation  |                                                 |
\*---------------------------------------------------------------------------*/
FoamFile
{
    version     2.0;
    format      ascii;
    class       dictionary;
    location    "system";
    object      fvSchemes;
}
// * * * * * * * * * * * * * * * * * * * * * * * * * * * * * * * * * * * * * //
                                                                         // Original
ddtSchemes                                                               
{                                                                        
    default                       steadyState;                           // steadyState;
}                                                                        
                                                                         
gradSchemes                                                              
{                                                                        
    default                       Gauss linear;                          // Gauss linear;
}                                                                        
                                                                         
divSchemes                                                               
{                                                                        
    default                       none;                                  // none;
    div(phi,U)                    bounded Gauss linearUpwind grad(U);    // bounded Gauss linearUpwind grad(U);
    div((nuEff*dev2(T(grad(U))))) Gauss linear;                          // Gauss linear; 
    div(phi,omega)                bounded Gauss upwind;                  // bounded Gauss upwind;   
    div(phi,k)                    bounded Gauss upwind;                  // bounded Gauss upwind;  
}                                                                        
                                                                         
laplacianSchemes                                                         
{                                                                        
    default                       Gauss linear corrected;                // Gauss linear corrected; 
}                                                                        
                                                           
interpolationSchemes                                                     
{                                                                        
    default                       linear;                                // linear;
}                                                                        

snGradSchemes
{                                                                        
    default                       corrected;                             // corrected;
}                                                                        

wallDist
{                                                                        
    method                        meshWave;                              // meshWave;
}                                                                        

fluxRequired
{                                                                        
    default                       no;                                    // no;
    p;                                                                   // p;
}                                                                        

// ************************************************************************* //
