/*--------------------------------*- C++ -*----------------------------------*\
| =========                 |                                                 |
| \\      /  F ield         | OpenFOAM: The Open Source CFD Toolbox           |
|  \\    /   O peration     | Version:  5                                     |
|   \\  /    A nd           | Web:      www.OpenFOAM.org                      |
|    \\/     M anipulation  |                                                 |
\*---------------------------------------------------------------------------*/
FoamFile
{
    version     2.0;
    format      ascii;
    class       dictionary;
    location    "system";
    object      fvSolution;
}
// * * * * * * * * * * * * * * * * * * * * * * * * * * * * * * * * * * * * * //

solvers
{
    p
    {
        
        solver           GAMG;
        tolerance        1e-8;
        //relTol           0.01;
        minIter             25;
        //maxIter             100;
        smoother         GaussSeidel;
        nPreSweeps       0;
        nPostSweeps      2;
        nFinestSweeps     2;
        //cacheAgglomeration on;
        //agglomerator     faceAreaPair;
        //nCellsInCoarsestLevel 0;
        //mergeLevels      1;
    }

    U
    {
        solver          smoothSolver;
        smoother        GaussSeidel;
        nSweeps         2;
        tolerance       1e-10;
        //relTol          0.1;
    }
    k
    {
        solver          smoothSolver;
        smoother        GaussSeidel;
        tolerance       1e-10;
        //relTol          0.01;
        nSweeps         1;
    }

    omega
    {
        solver          smoothSolver;
        smoother        GaussSeidel;
        tolerance       1e-5;
        //relTol          0.1;
        nSweeps         1;
    }

}

SIMPLE
{
    nNonOrthogonalCorrectors 0;
    pRefCell        0;
    pRefValue       0;

    residualControl
    {
        p               1e-5;
        U               1e-7;
        nuTilda         1e-7;
    }
}

relaxationFactors
{
    p               0.7;
    U               0.7;
    k               0.7;
    epsilon         0.7;
    omega           0.7;
   
}


// ************************************************************************* //
