/*--------------------------------*- C++ -*----------------------------------*\
| =========                 |                                                 |
| \\      /  F ield         | OpenFOAM: The Open Source CFD Toolbox           |
|  \\    /   O peration     | Version:  5                                     |
|   \\  /    A nd           | Web:      www.OpenFOAM.org                      |
|    \\/     M anipulation  |                                                 |
\*---------------------------------------------------------------------------*/
FoamFile
{
    version     2.0;
    format      ascii;
    class       dictionary;
    location    "system";
    object      fvSolution;
}
// * * * * * * * * * * * * * * * * * * * * * * * * * * * * * * * * * * * * * //
                                             // Original
solvers
{
    p
    {

        solver                GAMG;          // GAMG;
        tolerance             1e-7;          // 1e-7;
        relTol                0.001;          // 0.01;
        minIter               5;            // 5;
        maxIter               100;           // 100;
        smoother              GaussSeidel;   // GaussSeidel;
        nPreSweeps            0;             // 0;
        nPostSweeps           2;             // 2;
        nFinestSweeps         2;             // 2;
        cacheAgglomeration    on;            // on;
        agglomerator          faceAreaPair;  // faceAreaPair; 
        nCellsInCoarsestLevel 0;             // 0;
        mergeLevels           1;             // 1;
        

        // solver  PCG;
        // preconditioner  DIC;
        // tolerance  1e-4;
        // relTol  0.01;
        // minIter               5;            // 5;
        // maxIter               100;           // 100;

    }

 U
    {
        solver          PBiCG;
        preconditioner  DILU;
        tolerance       1e-08;
        relTol          0.001;
    }

    "(omega|k|nuTilda)"
    {
        solver          PBiCG;
        preconditioner  DILU;
        tolerance       1e-08;
        relTol          0.001;
    }


}

SIMPLE
{
    nNonOrthogonalCorrectors 1;              // 0;
    pRefCell        0;                       // 0;
    pRefValue       0;                       // 0;

    residualControl
    {
        p               1e-5;                //
        U               1e-7;                //
        //nuTilda         1e-7;                //
    }
}

relaxationFactors
{
    fields
    {
        p               0.3;                 // 0.3;
    }

    equations
    {
        U               0.7;                 // 0.7
                                             // nuTilda         0.7;
        k               0.7;                 //
        omega           0.7;                 // 
    }
  
}


// ************************************************************************* //
