/*--------------------------------*- C++ -*----------------------------------*\
| =========                 |                                                 |
| \\      /  F ield         | OpenFOAM: The Open Source CFD Toolbox           |
|  \\    /   O peration     | Version:  2.1.x                                 |
|   \\  /    A nd           | Web:      www.OpenFOAM.org                      |
|    \\/     M anipulation  |                                                 |
\*---------------------------------------------------------------------------*/
FoamFile
{
    version     2.0;
    format      ascii;
    class       dictionary;
    object      controlDict;
}
// * * * * * * * * * * * * * * * * * * * * * * * * * * * * * * * * * * * * * //

application     simpleFoam;

startFrom       startTime;

startTime       0;

stopAt          endTime;

endTime         10000;

deltaT          1;

writeControl    adjustableRunTime;

writeInterval   1000;

purgeWrite      1;

writeFormat     ascii;

writePrecision  6;

writeCompression uncompressed;

timeFormat      general;

timePrecision   6;

runTimeModifiable true;

functions
{

forces

{

    type        forceCoeffs;

    functionObjectLibs ( "libforces.so" );

    outputControl timeStep;

    outputInterval 1;

    patches     (
		airfoil
		);

    pName       p;

    UName       U;

    rhoName     rhoInf;      // Indicates incompressible

    log         true;

    rhoInf      1;           // Redundant for incompressible

    liftDir     (0.0 1.0 0.0);

    dragDir     (1.0 0.0 0.0);

    CofR        (0.25 0 0);  // Axle midpoint on ground

    pitchAxis   (0 0 1);

    magUInf     30;

    lRef	1;

    Aref        0.0189462;

}

// ************************************************************************* //
